Circuit: * Z:\home\spock\HIG\EE466A-kretsteori\lab\EE466-lab04\sim\lab4_1.asc

.OP point found by inspection.
.step freq=1000
.step freq=2000
.step freq=3000
.step freq=5000
.step freq=7000
.step freq=10000

Date: Wed Nov 18 10:50:26 2015
Total elapsed time: 0.274 seconds.

tnom = 27
temp = 27
method = modified trap
totiter = 2082
traniter = 2082
tranpoints = 1042
accept = 1042
rejected = 0
matrix size = 3
fillins = 0
solver = Normal
Matrix Compiler1: 50 bytes object code size  0.3/0.3/[0.2]
Matrix Compiler2: 175 bytes object code size  0.3/0.3/[0.3]


