Circuit: * Z:\home\spock\HIG\EE466A-kretsteori\lab\EE466-lab04\sim\lab4_1.asc


Date: Wed Nov 18 10:24:57 2015
Total elapsed time: 0.030 seconds.

tnom = 27
temp = 27
method = trap
totiter = 0
traniter = 0
tranpoints = 0
accept = 0
rejected = 0
matrix size = 3
fillins = 0
solver = Normal

